*SPEF "ieee 1481-1999"
*DESIGN "tt_um_example"
*DATE "11:11:11 Fri 11 11, 1111"
*VENDOR "OpenRCX"
*PROGRAM "Parallel Extraction"
*VERSION "1.0"
*DESIGN_FLOW "NAME_SCOPE LOCAL" "PIN_CAP NONE"
*DIVIDER /
*DELIMITER :
*BUS_DELIMITER []
*T_UNIT 1 NS
*C_UNIT 1 PF
*R_UNIT 1 OHM
*L_UNIT 1 HENRY

*NAME_MAP
*3 clk
*4 ena
*5 rst_n
*6 ui_in[0]
*7 ui_in[1]
*8 ui_in[2]
*9 ui_in[3]
*10 ui_in[4]
*11 ui_in[5]
*12 ui_in[6]
*13 ui_in[7]
*14 uio_in[0]
*15 uio_in[1]
*16 uio_in[2]
*17 uio_in[3]
*18 uio_in[4]
*19 uio_in[5]
*20 uio_in[6]
*21 uio_in[7]
*22 net19
*23 net20
*24 net21
*25 net22
*26 net23
*27 net24
*28 net25
*29 net3
*30 net4
*31 net5
*32 net6
*33 net7
*34 net8
*35 net9
*36 net10
*37 net11
*38 uo_out[0]
*39 net12
*40 net13
*41 net14
*42 net15
*43 net16
*44 net17
*45 net18
*46 _00_
*47 net1
*48 net2
*49 FILLER_0_0_109
*50 FILLER_0_0_113
*51 FILLER_0_0_125
*52 FILLER_0_0_137
*53 FILLER_0_0_141
*54 FILLER_0_0_15
*55 FILLER_0_0_153
*56 FILLER_0_0_165
*57 FILLER_0_0_169
*58 FILLER_0_0_181
*59 FILLER_0_0_193
*60 FILLER_0_0_197
*61 FILLER_0_0_209
*62 FILLER_0_0_221
*63 FILLER_0_0_225
*64 FILLER_0_0_237
*65 FILLER_0_0_249
*66 FILLER_0_0_253
*67 FILLER_0_0_265
*68 FILLER_0_0_27
*69 FILLER_0_0_277
*70 FILLER_0_0_281
*71 FILLER_0_0_29
*72 FILLER_0_0_293
*73 FILLER_0_0_3
*74 FILLER_0_0_305
*75 FILLER_0_0_309
*76 FILLER_0_0_321
*77 FILLER_0_0_333
*78 FILLER_0_0_41
*79 FILLER_0_0_53
*80 FILLER_0_0_57
*81 FILLER_0_0_69
*82 FILLER_0_0_81
*83 FILLER_0_0_85
*84 FILLER_0_0_97
*85 FILLER_0_10_109
*86 FILLER_0_10_121
*87 FILLER_0_10_133
*88 FILLER_0_10_139
*89 FILLER_0_10_141
*90 FILLER_0_10_15
*91 FILLER_0_10_153
*92 FILLER_0_10_165
*93 FILLER_0_10_177
*94 FILLER_0_10_189
*95 FILLER_0_10_195
*96 FILLER_0_10_197
*97 FILLER_0_10_209
*98 FILLER_0_10_221
*99 FILLER_0_10_233
*100 FILLER_0_10_245
*101 FILLER_0_10_251
*102 FILLER_0_10_253
*103 FILLER_0_10_265
*104 FILLER_0_10_27
*105 FILLER_0_10_277
*106 FILLER_0_10_289
*107 FILLER_0_10_29
*108 FILLER_0_10_3
*109 FILLER_0_10_301
*110 FILLER_0_10_307
*111 FILLER_0_10_309
*112 FILLER_0_10_321
*113 FILLER_0_10_333
*114 FILLER_0_10_41
*115 FILLER_0_10_53
*116 FILLER_0_10_65
*117 FILLER_0_10_77
*118 FILLER_0_10_83
*119 FILLER_0_10_85
*120 FILLER_0_10_97
*121 FILLER_0_11_105
*122 FILLER_0_11_111
*123 FILLER_0_11_113
*124 FILLER_0_11_125
*125 FILLER_0_11_137
*126 FILLER_0_11_149
*127 FILLER_0_11_15
*128 FILLER_0_11_161
*129 FILLER_0_11_167
*130 FILLER_0_11_169
*131 FILLER_0_11_181
*132 FILLER_0_11_193
*133 FILLER_0_11_205
*134 FILLER_0_11_217
*135 FILLER_0_11_223
*136 FILLER_0_11_225
*137 FILLER_0_11_237
*138 FILLER_0_11_249
*139 FILLER_0_11_261
*140 FILLER_0_11_27
*141 FILLER_0_11_273
*142 FILLER_0_11_279
*143 FILLER_0_11_281
*144 FILLER_0_11_293
*145 FILLER_0_11_3
*146 FILLER_0_11_305
*147 FILLER_0_11_317
*148 FILLER_0_11_329
*149 FILLER_0_11_39
*150 FILLER_0_11_51
*151 FILLER_0_11_55
*152 FILLER_0_11_57
*153 FILLER_0_11_69
*154 FILLER_0_11_81
*155 FILLER_0_11_93
*156 FILLER_0_12_109
*157 FILLER_0_12_121
*158 FILLER_0_12_133
*159 FILLER_0_12_139
*160 FILLER_0_12_141
*161 FILLER_0_12_15
*162 FILLER_0_12_153
*163 FILLER_0_12_165
*164 FILLER_0_12_177
*165 FILLER_0_12_189
*166 FILLER_0_12_195
*167 FILLER_0_12_197
*168 FILLER_0_12_209
*169 FILLER_0_12_221
*170 FILLER_0_12_233
*171 FILLER_0_12_245
*172 FILLER_0_12_251
*173 FILLER_0_12_253
*174 FILLER_0_12_265
*175 FILLER_0_12_27
*176 FILLER_0_12_277
*177 FILLER_0_12_289
*178 FILLER_0_12_29
*179 FILLER_0_12_3
*180 FILLER_0_12_301
*181 FILLER_0_12_307
*182 FILLER_0_12_309
*183 FILLER_0_12_321
*184 FILLER_0_12_333
*185 FILLER_0_12_41
*186 FILLER_0_12_53
*187 FILLER_0_12_65
*188 FILLER_0_12_77
*189 FILLER_0_12_83
*190 FILLER_0_12_85
*191 FILLER_0_12_97
*192 FILLER_0_13_105
*193 FILLER_0_13_111
*194 FILLER_0_13_113
*195 FILLER_0_13_125
*196 FILLER_0_13_137
*197 FILLER_0_13_149
*198 FILLER_0_13_15
*199 FILLER_0_13_161
*200 FILLER_0_13_167
*201 FILLER_0_13_169
*202 FILLER_0_13_181
*203 FILLER_0_13_193
*204 FILLER_0_13_205
*205 FILLER_0_13_217
*206 FILLER_0_13_223
*207 FILLER_0_13_225
*208 FILLER_0_13_237
*209 FILLER_0_13_249
*210 FILLER_0_13_261
*211 FILLER_0_13_27
*212 FILLER_0_13_273
*213 FILLER_0_13_279
*214 FILLER_0_13_281
*215 FILLER_0_13_293
*216 FILLER_0_13_3
*217 FILLER_0_13_305
*218 FILLER_0_13_317
*219 FILLER_0_13_329
*220 FILLER_0_13_39
*221 FILLER_0_13_51
*222 FILLER_0_13_55
*223 FILLER_0_13_57
*224 FILLER_0_13_69
*225 FILLER_0_13_81
*226 FILLER_0_13_93
*227 FILLER_0_14_109
*228 FILLER_0_14_121
*229 FILLER_0_14_133
*230 FILLER_0_14_139
*231 FILLER_0_14_141
*232 FILLER_0_14_15
*233 FILLER_0_14_153
*234 FILLER_0_14_165
*235 FILLER_0_14_177
*236 FILLER_0_14_189
*237 FILLER_0_14_195
*238 FILLER_0_14_197
*239 FILLER_0_14_209
*240 FILLER_0_14_221
*241 FILLER_0_14_233
*242 FILLER_0_14_245
*243 FILLER_0_14_251
*244 FILLER_0_14_253
*245 FILLER_0_14_265
*246 FILLER_0_14_27
*247 FILLER_0_14_277
*248 FILLER_0_14_289
*249 FILLER_0_14_29
*250 FILLER_0_14_3
*251 FILLER_0_14_301
*252 FILLER_0_14_307
*253 FILLER_0_14_309
*254 FILLER_0_14_321
*255 FILLER_0_14_333
*256 FILLER_0_14_41
*257 FILLER_0_14_53
*258 FILLER_0_14_65
*259 FILLER_0_14_77
*260 FILLER_0_14_83
*261 FILLER_0_14_85
*262 FILLER_0_14_97
*263 FILLER_0_15_105
*264 FILLER_0_15_111
*265 FILLER_0_15_113
*266 FILLER_0_15_125
*267 FILLER_0_15_137
*268 FILLER_0_15_149
*269 FILLER_0_15_15
*270 FILLER_0_15_161
*271 FILLER_0_15_167
*272 FILLER_0_15_169
*273 FILLER_0_15_181
*274 FILLER_0_15_193
*275 FILLER_0_15_205
*276 FILLER_0_15_217
*277 FILLER_0_15_223
*278 FILLER_0_15_225
*279 FILLER_0_15_237
*280 FILLER_0_15_249
*281 FILLER_0_15_261
*282 FILLER_0_15_27
*283 FILLER_0_15_273
*284 FILLER_0_15_279
*285 FILLER_0_15_281
*286 FILLER_0_15_293
*287 FILLER_0_15_3
*288 FILLER_0_15_305
*289 FILLER_0_15_317
*290 FILLER_0_15_329
*291 FILLER_0_15_39
*292 FILLER_0_15_51
*293 FILLER_0_15_55
*294 FILLER_0_15_57
*295 FILLER_0_15_69
*296 FILLER_0_15_81
*297 FILLER_0_15_93
*298 FILLER_0_16_109
*299 FILLER_0_16_121
*300 FILLER_0_16_133
*301 FILLER_0_16_139
*302 FILLER_0_16_141
*303 FILLER_0_16_15
*304 FILLER_0_16_153
*305 FILLER_0_16_165
*306 FILLER_0_16_177
*307 FILLER_0_16_189
*308 FILLER_0_16_195
*309 FILLER_0_16_197
*310 FILLER_0_16_209
*311 FILLER_0_16_221
*312 FILLER_0_16_233
*313 FILLER_0_16_245
*314 FILLER_0_16_251
*315 FILLER_0_16_253
*316 FILLER_0_16_265
*317 FILLER_0_16_27
*318 FILLER_0_16_277
*319 FILLER_0_16_289
*320 FILLER_0_16_29
*321 FILLER_0_16_3
*322 FILLER_0_16_301
*323 FILLER_0_16_307
*324 FILLER_0_16_309
*325 FILLER_0_16_321
*326 FILLER_0_16_333
*327 FILLER_0_16_41
*328 FILLER_0_16_53
*329 FILLER_0_16_65
*330 FILLER_0_16_77
*331 FILLER_0_16_83
*332 FILLER_0_16_85
*333 FILLER_0_16_97
*334 FILLER_0_17_105
*335 FILLER_0_17_111
*336 FILLER_0_17_113
*337 FILLER_0_17_125
*338 FILLER_0_17_137
*339 FILLER_0_17_149
*340 FILLER_0_17_15
*341 FILLER_0_17_161
*342 FILLER_0_17_167
*343 FILLER_0_17_169
*344 FILLER_0_17_181
*345 FILLER_0_17_193
*346 FILLER_0_17_205
*347 FILLER_0_17_217
*348 FILLER_0_17_223
*349 FILLER_0_17_225
*350 FILLER_0_17_237
*351 FILLER_0_17_249
*352 FILLER_0_17_261
*353 FILLER_0_17_27
*354 FILLER_0_17_273
*355 FILLER_0_17_279
*356 FILLER_0_17_281
*357 FILLER_0_17_293
*358 FILLER_0_17_3
*359 FILLER_0_17_305
*360 FILLER_0_17_317
*361 FILLER_0_17_329
*362 FILLER_0_17_39
*363 FILLER_0_17_51
*364 FILLER_0_17_55
*365 FILLER_0_17_57
*366 FILLER_0_17_69
*367 FILLER_0_17_81
*368 FILLER_0_17_93
*369 FILLER_0_18_109
*370 FILLER_0_18_121
*371 FILLER_0_18_133
*372 FILLER_0_18_139
*373 FILLER_0_18_141
*374 FILLER_0_18_15
*375 FILLER_0_18_153
*376 FILLER_0_18_165
*377 FILLER_0_18_177
*378 FILLER_0_18_189
*379 FILLER_0_18_195
*380 FILLER_0_18_197
*381 FILLER_0_18_209
*382 FILLER_0_18_221
*383 FILLER_0_18_233
*384 FILLER_0_18_245
*385 FILLER_0_18_251
*386 FILLER_0_18_253
*387 FILLER_0_18_265
*388 FILLER_0_18_27
*389 FILLER_0_18_277
*390 FILLER_0_18_289
*391 FILLER_0_18_29
*392 FILLER_0_18_3
*393 FILLER_0_18_301
*394 FILLER_0_18_307
*395 FILLER_0_18_309
*396 FILLER_0_18_321
*397 FILLER_0_18_333
*398 FILLER_0_18_41
*399 FILLER_0_18_53
*400 FILLER_0_18_65
*401 FILLER_0_18_77
*402 FILLER_0_18_83
*403 FILLER_0_18_85
*404 FILLER_0_18_97
*405 FILLER_0_19_105
*406 FILLER_0_19_111
*407 FILLER_0_19_113
*408 FILLER_0_19_125
*409 FILLER_0_19_137
*410 FILLER_0_19_149
*411 FILLER_0_19_15
*412 FILLER_0_19_161
*413 FILLER_0_19_167
*414 FILLER_0_19_169
*415 FILLER_0_19_181
*416 FILLER_0_19_193
*417 FILLER_0_19_205
*418 FILLER_0_19_217
*419 FILLER_0_19_223
*420 FILLER_0_19_225
*421 FILLER_0_19_237
*422 FILLER_0_19_249
*423 FILLER_0_19_261
*424 FILLER_0_19_27
*425 FILLER_0_19_273
*426 FILLER_0_19_279
*427 FILLER_0_19_281
*428 FILLER_0_19_293
*429 FILLER_0_19_3
*430 FILLER_0_19_305
*431 FILLER_0_19_317
*432 FILLER_0_19_329
*433 FILLER_0_19_39
*434 FILLER_0_19_51
*435 FILLER_0_19_55
*436 FILLER_0_19_57
*437 FILLER_0_19_69
*438 FILLER_0_19_81
*439 FILLER_0_19_93
*440 FILLER_0_1_105
*441 FILLER_0_1_111
*442 FILLER_0_1_113
*443 FILLER_0_1_125
*444 FILLER_0_1_137
*445 FILLER_0_1_149
*446 FILLER_0_1_15
*447 FILLER_0_1_161
*448 FILLER_0_1_167
*449 FILLER_0_1_169
*450 FILLER_0_1_181
*451 FILLER_0_1_193
*452 FILLER_0_1_205
*453 FILLER_0_1_217
*454 FILLER_0_1_223
*455 FILLER_0_1_225
*456 FILLER_0_1_237
*457 FILLER_0_1_249
*458 FILLER_0_1_261
*459 FILLER_0_1_27
*460 FILLER_0_1_273
*461 FILLER_0_1_279
*462 FILLER_0_1_281
*463 FILLER_0_1_293
*464 FILLER_0_1_3
*465 FILLER_0_1_305
*466 FILLER_0_1_317
*467 FILLER_0_1_329
*468 FILLER_0_1_39
*469 FILLER_0_1_51
*470 FILLER_0_1_55
*471 FILLER_0_1_57
*472 FILLER_0_1_69
*473 FILLER_0_1_81
*474 FILLER_0_1_93
*475 FILLER_0_20_109
*476 FILLER_0_20_121
*477 FILLER_0_20_133
*478 FILLER_0_20_139
*479 FILLER_0_20_141
*480 FILLER_0_20_15
*481 FILLER_0_20_153
*482 FILLER_0_20_165
*483 FILLER_0_20_177
*484 FILLER_0_20_189
*485 FILLER_0_20_195
*486 FILLER_0_20_197
*487 FILLER_0_20_209
*488 FILLER_0_20_221
*489 FILLER_0_20_233
*490 FILLER_0_20_245
*491 FILLER_0_20_251
*492 FILLER_0_20_253
*493 FILLER_0_20_265
*494 FILLER_0_20_27
*495 FILLER_0_20_277
*496 FILLER_0_20_289
*497 FILLER_0_20_29
*498 FILLER_0_20_3
*499 FILLER_0_20_301
*500 FILLER_0_20_307
*501 FILLER_0_20_309
*502 FILLER_0_20_321
*503 FILLER_0_20_333
*504 FILLER_0_20_41
*505 FILLER_0_20_53
*506 FILLER_0_20_65
*507 FILLER_0_20_77
*508 FILLER_0_20_83
*509 FILLER_0_20_85
*510 FILLER_0_20_97
*511 FILLER_0_21_105
*512 FILLER_0_21_111
*513 FILLER_0_21_113
*514 FILLER_0_21_125
*515 FILLER_0_21_137
*516 FILLER_0_21_149
*517 FILLER_0_21_15
*518 FILLER_0_21_161
*519 FILLER_0_21_167
*520 FILLER_0_21_169
*521 FILLER_0_21_181
*522 FILLER_0_21_193
*523 FILLER_0_21_205
*524 FILLER_0_21_217
*525 FILLER_0_21_223
*526 FILLER_0_21_225
*527 FILLER_0_21_237
*528 FILLER_0_21_249
*529 FILLER_0_21_261
*530 FILLER_0_21_27
*531 FILLER_0_21_273
*532 FILLER_0_21_279
*533 FILLER_0_21_281
*534 FILLER_0_21_293
*535 FILLER_0_21_3
*536 FILLER_0_21_305
*537 FILLER_0_21_317
*538 FILLER_0_21_329
*539 FILLER_0_21_39
*540 FILLER_0_21_51
*541 FILLER_0_21_55
*542 FILLER_0_21_57
*543 FILLER_0_21_69
*544 FILLER_0_21_81
*545 FILLER_0_21_93
*546 FILLER_0_22_109
*547 FILLER_0_22_121
*548 FILLER_0_22_133
*549 FILLER_0_22_139
*550 FILLER_0_22_141
*551 FILLER_0_22_15
*552 FILLER_0_22_153
*553 FILLER_0_22_165
*554 FILLER_0_22_177
*555 FILLER_0_22_189
*556 FILLER_0_22_195
*557 FILLER_0_22_197
*558 FILLER_0_22_209
*559 FILLER_0_22_221
*560 FILLER_0_22_233
*561 FILLER_0_22_245
*562 FILLER_0_22_251
*563 FILLER_0_22_253
*564 FILLER_0_22_265
*565 FILLER_0_22_27
*566 FILLER_0_22_277
*567 FILLER_0_22_289
*568 FILLER_0_22_29
*569 FILLER_0_22_3
*570 FILLER_0_22_301
*571 FILLER_0_22_307
*572 FILLER_0_22_309
*573 FILLER_0_22_321
*574 FILLER_0_22_333
*575 FILLER_0_22_41
*576 FILLER_0_22_53
*577 FILLER_0_22_65
*578 FILLER_0_22_77
*579 FILLER_0_22_83
*580 FILLER_0_22_85
*581 FILLER_0_22_97
*582 FILLER_0_23_105
*583 FILLER_0_23_111
*584 FILLER_0_23_113
*585 FILLER_0_23_125
*586 FILLER_0_23_137
*587 FILLER_0_23_149
*588 FILLER_0_23_15
*589 FILLER_0_23_161
*590 FILLER_0_23_167
*591 FILLER_0_23_169
*592 FILLER_0_23_181
*593 FILLER_0_23_193
*594 FILLER_0_23_205
*595 FILLER_0_23_217
*596 FILLER_0_23_223
*597 FILLER_0_23_225
*598 FILLER_0_23_237
*599 FILLER_0_23_249
*600 FILLER_0_23_261
*601 FILLER_0_23_27
*602 FILLER_0_23_273
*603 FILLER_0_23_279
*604 FILLER_0_23_281
*605 FILLER_0_23_293
*606 FILLER_0_23_3
*607 FILLER_0_23_305
*608 FILLER_0_23_317
*609 FILLER_0_23_329
*610 FILLER_0_23_39
*611 FILLER_0_23_51
*612 FILLER_0_23_55
*613 FILLER_0_23_57
*614 FILLER_0_23_69
*615 FILLER_0_23_81
*616 FILLER_0_23_93
*617 FILLER_0_24_109
*618 FILLER_0_24_121
*619 FILLER_0_24_133
*620 FILLER_0_24_139
*621 FILLER_0_24_141
*622 FILLER_0_24_15
*623 FILLER_0_24_153
*624 FILLER_0_24_165
*625 FILLER_0_24_177
*626 FILLER_0_24_189
*627 FILLER_0_24_195
*628 FILLER_0_24_197
*629 FILLER_0_24_209
*630 FILLER_0_24_221
*631 FILLER_0_24_233
*632 FILLER_0_24_245
*633 FILLER_0_24_251
*634 FILLER_0_24_253
*635 FILLER_0_24_265
*636 FILLER_0_24_27
*637 FILLER_0_24_277
*638 FILLER_0_24_289
*639 FILLER_0_24_29
*640 FILLER_0_24_3
*641 FILLER_0_24_301
*642 FILLER_0_24_307
*643 FILLER_0_24_309
*644 FILLER_0_24_321
*645 FILLER_0_24_333
*646 FILLER_0_24_41
*647 FILLER_0_24_53
*648 FILLER_0_24_65
*649 FILLER_0_24_77
*650 FILLER_0_24_83
*651 FILLER_0_24_85
*652 FILLER_0_24_97
*653 FILLER_0_25_105
*654 FILLER_0_25_111
*655 FILLER_0_25_113
*656 FILLER_0_25_125
*657 FILLER_0_25_137
*658 FILLER_0_25_149
*659 FILLER_0_25_15
*660 FILLER_0_25_161
*661 FILLER_0_25_167
*662 FILLER_0_25_169
*663 FILLER_0_25_181
*664 FILLER_0_25_193
*665 FILLER_0_25_205
*666 FILLER_0_25_217
*667 FILLER_0_25_223
*668 FILLER_0_25_225
*669 FILLER_0_25_237
*670 FILLER_0_25_249
*671 FILLER_0_25_261
*672 FILLER_0_25_27
*673 FILLER_0_25_273
*674 FILLER_0_25_279
*675 FILLER_0_25_281
*676 FILLER_0_25_293
*677 FILLER_0_25_3
*678 FILLER_0_25_305
*679 FILLER_0_25_317
*680 FILLER_0_25_329
*681 FILLER_0_25_39
*682 FILLER_0_25_51
*683 FILLER_0_25_55
*684 FILLER_0_25_57
*685 FILLER_0_25_69
*686 FILLER_0_25_81
*687 FILLER_0_25_93
*688 FILLER_0_26_109
*689 FILLER_0_26_121
*690 FILLER_0_26_133
*691 FILLER_0_26_139
*692 FILLER_0_26_141
*693 FILLER_0_26_15
*694 FILLER_0_26_153
*695 FILLER_0_26_165
*696 FILLER_0_26_177
*697 FILLER_0_26_189
*698 FILLER_0_26_195
*699 FILLER_0_26_197
*700 FILLER_0_26_209
*701 FILLER_0_26_221
*702 FILLER_0_26_233
*703 FILLER_0_26_245
*704 FILLER_0_26_251
*705 FILLER_0_26_253
*706 FILLER_0_26_265
*707 FILLER_0_26_27
*708 FILLER_0_26_277
*709 FILLER_0_26_289
*710 FILLER_0_26_29
*711 FILLER_0_26_3
*712 FILLER_0_26_301
*713 FILLER_0_26_307
*714 FILLER_0_26_309
*715 FILLER_0_26_321
*716 FILLER_0_26_333
*717 FILLER_0_26_41
*718 FILLER_0_26_53
*719 FILLER_0_26_65
*720 FILLER_0_26_77
*721 FILLER_0_26_83
*722 FILLER_0_26_85
*723 FILLER_0_26_97
*724 FILLER_0_27_105
*725 FILLER_0_27_111
*726 FILLER_0_27_113
*727 FILLER_0_27_125
*728 FILLER_0_27_137
*729 FILLER_0_27_149
*730 FILLER_0_27_15
*731 FILLER_0_27_161
*732 FILLER_0_27_167
*733 FILLER_0_27_169
*734 FILLER_0_27_181
*735 FILLER_0_27_193
*736 FILLER_0_27_205
*737 FILLER_0_27_217
*738 FILLER_0_27_223
*739 FILLER_0_27_225
*740 FILLER_0_27_237
*741 FILLER_0_27_249
*742 FILLER_0_27_261
*743 FILLER_0_27_27
*744 FILLER_0_27_273
*745 FILLER_0_27_279
*746 FILLER_0_27_281
*747 FILLER_0_27_293
*748 FILLER_0_27_3
*749 FILLER_0_27_305
*750 FILLER_0_27_317
*751 FILLER_0_27_329
*752 FILLER_0_27_39
*753 FILLER_0_27_51
*754 FILLER_0_27_55
*755 FILLER_0_27_57
*756 FILLER_0_27_69
*757 FILLER_0_27_81
*758 FILLER_0_27_93
*759 FILLER_0_28_109
*760 FILLER_0_28_121
*761 FILLER_0_28_133
*762 FILLER_0_28_139
*763 FILLER_0_28_141
*764 FILLER_0_28_15
*765 FILLER_0_28_153
*766 FILLER_0_28_165
*767 FILLER_0_28_177
*768 FILLER_0_28_189
*769 FILLER_0_28_195
*770 FILLER_0_28_197
*771 FILLER_0_28_209
*772 FILLER_0_28_221
*773 FILLER_0_28_233
*774 FILLER_0_28_245
*775 FILLER_0_28_251
*776 FILLER_0_28_253
*777 FILLER_0_28_265
*778 FILLER_0_28_27
*779 FILLER_0_28_277
*780 FILLER_0_28_289
*781 FILLER_0_28_29
*782 FILLER_0_28_3
*783 FILLER_0_28_301
*784 FILLER_0_28_307
*785 FILLER_0_28_309
*786 FILLER_0_28_321
*787 FILLER_0_28_333
*788 FILLER_0_28_41
*789 FILLER_0_28_53
*790 FILLER_0_28_65
*791 FILLER_0_28_77
*792 FILLER_0_28_83
*793 FILLER_0_28_85
*794 FILLER_0_28_97
*795 FILLER_0_29_105
*796 FILLER_0_29_111
*797 FILLER_0_29_113
*798 FILLER_0_29_125
*799 FILLER_0_29_137
*800 FILLER_0_29_149
*801 FILLER_0_29_15
*802 FILLER_0_29_161
*803 FILLER_0_29_167
*804 FILLER_0_29_169
*805 FILLER_0_29_181
*806 FILLER_0_29_193
*807 FILLER_0_29_205
*808 FILLER_0_29_217
*809 FILLER_0_29_223
*810 FILLER_0_29_225
*811 FILLER_0_29_237
*812 FILLER_0_29_249
*813 FILLER_0_29_261
*814 FILLER_0_29_27
*815 FILLER_0_29_273
*816 FILLER_0_29_279
*817 FILLER_0_29_281
*818 FILLER_0_29_293
*819 FILLER_0_29_3
*820 FILLER_0_29_305
*821 FILLER_0_29_317
*822 FILLER_0_29_329
*823 FILLER_0_29_39
*824 FILLER_0_29_51
*825 FILLER_0_29_55
*826 FILLER_0_29_57
*827 FILLER_0_29_69
*828 FILLER_0_29_81
*829 FILLER_0_29_93
*830 FILLER_0_2_109
*831 FILLER_0_2_121
*832 FILLER_0_2_133
*833 FILLER_0_2_139
*834 FILLER_0_2_141
*835 FILLER_0_2_15
*836 FILLER_0_2_153
*837 FILLER_0_2_165
*838 FILLER_0_2_177
*839 FILLER_0_2_189
*840 FILLER_0_2_195
*841 FILLER_0_2_197
*842 FILLER_0_2_209
*843 FILLER_0_2_221
*844 FILLER_0_2_233
*845 FILLER_0_2_245
*846 FILLER_0_2_251
*847 FILLER_0_2_253
*848 FILLER_0_2_265
*849 FILLER_0_2_27
*850 FILLER_0_2_277
*851 FILLER_0_2_289
*852 FILLER_0_2_29
*853 FILLER_0_2_3
*854 FILLER_0_2_301
*855 FILLER_0_2_307
*856 FILLER_0_2_309
*857 FILLER_0_2_321
*858 FILLER_0_2_333
*859 FILLER_0_2_41
*860 FILLER_0_2_53
*861 FILLER_0_2_65
*862 FILLER_0_2_77
*863 FILLER_0_2_83
*864 FILLER_0_2_85
*865 FILLER_0_2_97
*866 FILLER_0_30_109
*867 FILLER_0_30_121
*868 FILLER_0_30_133
*869 FILLER_0_30_139
*870 FILLER_0_30_141
*871 FILLER_0_30_15
*872 FILLER_0_30_153
*873 FILLER_0_30_165
*874 FILLER_0_30_177
*875 FILLER_0_30_189
*876 FILLER_0_30_195
*877 FILLER_0_30_197
*878 FILLER_0_30_209
*879 FILLER_0_30_221
*880 FILLER_0_30_233
*881 FILLER_0_30_245
*882 FILLER_0_30_251
*883 FILLER_0_30_253
*884 FILLER_0_30_265
*885 FILLER_0_30_27
*886 FILLER_0_30_277
*887 FILLER_0_30_289
*888 FILLER_0_30_29
*889 FILLER_0_30_3
*890 FILLER_0_30_301
*891 FILLER_0_30_307
*892 FILLER_0_30_309
*893 FILLER_0_30_321
*894 FILLER_0_30_333
*895 FILLER_0_30_41
*896 FILLER_0_30_53
*897 FILLER_0_30_65
*898 FILLER_0_30_77
*899 FILLER_0_30_83
*900 FILLER_0_30_85
*901 FILLER_0_30_97
*902 FILLER_0_31_105
*903 FILLER_0_31_111
*904 FILLER_0_31_113
*905 FILLER_0_31_125
*906 FILLER_0_31_137
*907 FILLER_0_31_149
*908 FILLER_0_31_15
*909 FILLER_0_31_161
*910 FILLER_0_31_167
*911 FILLER_0_31_169
*912 FILLER_0_31_181
*913 FILLER_0_31_193
*914 FILLER_0_31_205
*915 FILLER_0_31_217
*916 FILLER_0_31_223
*917 FILLER_0_31_225
*918 FILLER_0_31_237
*919 FILLER_0_31_249
*920 FILLER_0_31_261
*921 FILLER_0_31_27
*922 FILLER_0_31_273
*923 FILLER_0_31_279
*924 FILLER_0_31_281
*925 FILLER_0_31_293
*926 FILLER_0_31_3
*927 FILLER_0_31_305
*928 FILLER_0_31_317
*929 FILLER_0_31_329
*930 FILLER_0_31_39
*931 FILLER_0_31_51
*932 FILLER_0_31_55
*933 FILLER_0_31_57
*934 FILLER_0_31_69
*935 FILLER_0_31_81
*936 FILLER_0_31_93
*937 FILLER_0_32_109
*938 FILLER_0_32_121
*939 FILLER_0_32_133
*940 FILLER_0_32_139
*941 FILLER_0_32_141
*942 FILLER_0_32_15
*943 FILLER_0_32_153
*944 FILLER_0_32_165
*945 FILLER_0_32_177
*946 FILLER_0_32_189
*947 FILLER_0_32_195
*948 FILLER_0_32_197
*949 FILLER_0_32_209
*950 FILLER_0_32_221
*951 FILLER_0_32_233
*952 FILLER_0_32_245
*953 FILLER_0_32_251
*954 FILLER_0_32_253
*955 FILLER_0_32_265
*956 FILLER_0_32_27
*957 FILLER_0_32_277
*958 FILLER_0_32_289
*959 FILLER_0_32_29
*960 FILLER_0_32_3
*961 FILLER_0_32_301
*962 FILLER_0_32_307
*963 FILLER_0_32_309
*964 FILLER_0_32_321
*965 FILLER_0_32_333
*966 FILLER_0_32_41
*967 FILLER_0_32_53
*968 FILLER_0_32_65
*969 FILLER_0_32_77
*970 FILLER_0_32_83
*971 FILLER_0_32_85
*972 FILLER_0_32_97
*973 FILLER_0_33_105
*974 FILLER_0_33_111
*975 FILLER_0_33_113
*976 FILLER_0_33_125
*977 FILLER_0_33_137
*978 FILLER_0_33_149
*979 FILLER_0_33_15
*980 FILLER_0_33_161
*981 FILLER_0_33_167
*982 FILLER_0_33_169
*983 FILLER_0_33_181
*984 FILLER_0_33_193
*985 FILLER_0_33_205
*986 FILLER_0_33_217
*987 FILLER_0_33_223
*988 FILLER_0_33_225
*989 FILLER_0_33_237
*990 FILLER_0_33_249
*991 FILLER_0_33_261
*992 FILLER_0_33_27
*993 FILLER_0_33_273
*994 FILLER_0_33_279
*995 FILLER_0_33_281
*996 FILLER_0_33_293
*997 FILLER_0_33_3
*998 FILLER_0_33_305
*999 FILLER_0_33_317
*1000 FILLER_0_33_329
*1001 FILLER_0_33_39
*1002 FILLER_0_33_51
*1003 FILLER_0_33_55
*1004 FILLER_0_33_57
*1005 FILLER_0_33_69
*1006 FILLER_0_33_81
*1007 FILLER_0_33_93
*1008 FILLER_0_34_109
*1009 FILLER_0_34_121
*1010 FILLER_0_34_133
*1011 FILLER_0_34_139
*1012 FILLER_0_34_141
*1013 FILLER_0_34_15
*1014 FILLER_0_34_153
*1015 FILLER_0_34_165
*1016 FILLER_0_34_177
*1017 FILLER_0_34_189
*1018 FILLER_0_34_195
*1019 FILLER_0_34_197
*1020 FILLER_0_34_209
*1021 FILLER_0_34_221
*1022 FILLER_0_34_233
*1023 FILLER_0_34_245
*1024 FILLER_0_34_251
*1025 FILLER_0_34_253
*1026 FILLER_0_34_265
*1027 FILLER_0_34_27
*1028 FILLER_0_34_277
*1029 FILLER_0_34_289
*1030 FILLER_0_34_29
*1031 FILLER_0_34_3
*1032 FILLER_0_34_301
*1033 FILLER_0_34_307
*1034 FILLER_0_34_309
*1035 FILLER_0_34_321
*1036 FILLER_0_34_333
*1037 FILLER_0_34_41
*1038 FILLER_0_34_53
*1039 FILLER_0_34_65
*1040 FILLER_0_34_77
*1041 FILLER_0_34_83
*1042 FILLER_0_34_85
*1043 FILLER_0_34_97
*1044 FILLER_0_35_105
*1045 FILLER_0_35_111
*1046 FILLER_0_35_113
*1047 FILLER_0_35_125
*1048 FILLER_0_35_137
*1049 FILLER_0_35_149
*1050 FILLER_0_35_15
*1051 FILLER_0_35_161
*1052 FILLER_0_35_167
*1053 FILLER_0_35_169
*1054 FILLER_0_35_181
*1055 FILLER_0_35_193
*1056 FILLER_0_35_205
*1057 FILLER_0_35_217
*1058 FILLER_0_35_223
*1059 FILLER_0_35_225
*1060 FILLER_0_35_237
*1061 FILLER_0_35_249
*1062 FILLER_0_35_261
*1063 FILLER_0_35_27
*1064 FILLER_0_35_273
*1065 FILLER_0_35_279
*1066 FILLER_0_35_281
*1067 FILLER_0_35_293
*1068 FILLER_0_35_3
*1069 FILLER_0_35_305
*1070 FILLER_0_35_317
*1071 FILLER_0_35_329
*1072 FILLER_0_35_39
*1073 FILLER_0_35_51
*1074 FILLER_0_35_55
*1075 FILLER_0_35_57
*1076 FILLER_0_35_69
*1077 FILLER_0_35_81
*1078 FILLER_0_35_93
*1079 FILLER_0_36_109
*1080 FILLER_0_36_121
*1081 FILLER_0_36_133
*1082 FILLER_0_36_139
*1083 FILLER_0_36_141
*1084 FILLER_0_36_15
*1085 FILLER_0_36_153
*1086 FILLER_0_36_165
*1087 FILLER_0_36_177
*1088 FILLER_0_36_189
*1089 FILLER_0_36_195
*1090 FILLER_0_36_197
*1091 FILLER_0_36_209
*1092 FILLER_0_36_221
*1093 FILLER_0_36_233
*1094 FILLER_0_36_245
*1095 FILLER_0_36_251
*1096 FILLER_0_36_253
*1097 FILLER_0_36_265
*1098 FILLER_0_36_27
*1099 FILLER_0_36_277
*1100 FILLER_0_36_289
*1101 FILLER_0_36_29
*1102 FILLER_0_36_3
*1103 FILLER_0_36_301
*1104 FILLER_0_36_307
*1105 FILLER_0_36_309
*1106 FILLER_0_36_321
*1107 FILLER_0_36_333
*1108 FILLER_0_36_41
*1109 FILLER_0_36_53
*1110 FILLER_0_36_65
*1111 FILLER_0_36_77
*1112 FILLER_0_36_83
*1113 FILLER_0_36_85
*1114 FILLER_0_36_97
*1115 FILLER_0_37_105
*1116 FILLER_0_37_111
*1117 FILLER_0_37_113
*1118 FILLER_0_37_125
*1119 FILLER_0_37_137
*1120 FILLER_0_37_149
*1121 FILLER_0_37_15
*1122 FILLER_0_37_161
*1123 FILLER_0_37_167
*1124 FILLER_0_37_169
*1125 FILLER_0_37_181
*1126 FILLER_0_37_193
*1127 FILLER_0_37_205
*1128 FILLER_0_37_217
*1129 FILLER_0_37_223
*1130 FILLER_0_37_225
*1131 FILLER_0_37_237
*1132 FILLER_0_37_249
*1133 FILLER_0_37_261
*1134 FILLER_0_37_27
*1135 FILLER_0_37_273
*1136 FILLER_0_37_279
*1137 FILLER_0_37_281
*1138 FILLER_0_37_293
*1139 FILLER_0_37_3
*1140 FILLER_0_37_305
*1141 FILLER_0_37_317
*1142 FILLER_0_37_329
*1143 FILLER_0_37_39
*1144 FILLER_0_37_51
*1145 FILLER_0_37_55
*1146 FILLER_0_37_57
*1147 FILLER_0_37_69
*1148 FILLER_0_37_81
*1149 FILLER_0_37_93
*1150 FILLER_0_38_10
*1151 FILLER_0_38_102
*1152 FILLER_0_38_106
*1153 FILLER_0_38_110
*1154 FILLER_0_38_113
*1155 FILLER_0_38_118
*1156 FILLER_0_38_122
*1157 FILLER_0_38_126
*1158 FILLER_0_38_130
*1159 FILLER_0_38_134
*1160 FILLER_0_38_14
*1161 FILLER_0_38_144
*1162 FILLER_0_38_150
*1163 FILLER_0_38_154
*1164 FILLER_0_38_158
*1165 FILLER_0_38_162
*1166 FILLER_0_38_166
*1167 FILLER_0_38_169
*1168 FILLER_0_38_174
*1169 FILLER_0_38_178
*1170 FILLER_0_38_18
*1171 FILLER_0_38_182
*1172 FILLER_0_38_194
*1173 FILLER_0_38_197
*1174 FILLER_0_38_209
*1175 FILLER_0_38_22
*1176 FILLER_0_38_221
*1177 FILLER_0_38_225
*1178 FILLER_0_38_237
*1179 FILLER_0_38_249
*1180 FILLER_0_38_253
*1181 FILLER_0_38_265
*1182 FILLER_0_38_271
*1183 FILLER_0_38_278
*1184 FILLER_0_38_281
*1185 FILLER_0_38_290
*1186 FILLER_0_38_302
*1187 FILLER_0_38_312
*1188 FILLER_0_38_318
*1189 FILLER_0_38_32
*1190 FILLER_0_38_330
*1191 FILLER_0_38_334
*1192 FILLER_0_38_38
*1193 FILLER_0_38_42
*1194 FILLER_0_38_46
*1195 FILLER_0_38_50
*1196 FILLER_0_38_54
*1197 FILLER_0_38_57
*1198 FILLER_0_38_6
*1199 FILLER_0_38_62
*1200 FILLER_0_38_66
*1201 FILLER_0_38_70
*1202 FILLER_0_38_74
*1203 FILLER_0_38_78
*1204 FILLER_0_38_88
*1205 FILLER_0_38_94
*1206 FILLER_0_38_98
*1207 FILLER_0_3_105
*1208 FILLER_0_3_111
*1209 FILLER_0_3_113
*1210 FILLER_0_3_125
*1211 FILLER_0_3_137
*1212 FILLER_0_3_149
*1213 FILLER_0_3_15
*1214 FILLER_0_3_161
*1215 FILLER_0_3_167
*1216 FILLER_0_3_169
*1217 FILLER_0_3_181
*1218 FILLER_0_3_193
*1219 FILLER_0_3_205
*1220 FILLER_0_3_217
*1221 FILLER_0_3_223
*1222 FILLER_0_3_225
*1223 FILLER_0_3_237
*1224 FILLER_0_3_249
*1225 FILLER_0_3_261
*1226 FILLER_0_3_27
*1227 FILLER_0_3_273
*1228 FILLER_0_3_279
*1229 FILLER_0_3_281
*1230 FILLER_0_3_293
*1231 FILLER_0_3_3
*1232 FILLER_0_3_305
*1233 FILLER_0_3_317
*1234 FILLER_0_3_329
*1235 FILLER_0_3_39
*1236 FILLER_0_3_51
*1237 FILLER_0_3_55
*1238 FILLER_0_3_57
*1239 FILLER_0_3_69
*1240 FILLER_0_3_81
*1241 FILLER_0_3_93
*1242 FILLER_0_4_109
*1243 FILLER_0_4_121
*1244 FILLER_0_4_133
*1245 FILLER_0_4_139
*1246 FILLER_0_4_141
*1247 FILLER_0_4_15
*1248 FILLER_0_4_153
*1249 FILLER_0_4_165
*1250 FILLER_0_4_177
*1251 FILLER_0_4_189
*1252 FILLER_0_4_195
*1253 FILLER_0_4_197
*1254 FILLER_0_4_209
*1255 FILLER_0_4_221
*1256 FILLER_0_4_233
*1257 FILLER_0_4_245
*1258 FILLER_0_4_251
*1259 FILLER_0_4_253
*1260 FILLER_0_4_265
*1261 FILLER_0_4_27
*1262 FILLER_0_4_277
*1263 FILLER_0_4_289
*1264 FILLER_0_4_29
*1265 FILLER_0_4_3
*1266 FILLER_0_4_301
*1267 FILLER_0_4_307
*1268 FILLER_0_4_309
*1269 FILLER_0_4_321
*1270 FILLER_0_4_333
*1271 FILLER_0_4_41
*1272 FILLER_0_4_53
*1273 FILLER_0_4_65
*1274 FILLER_0_4_77
*1275 FILLER_0_4_83
*1276 FILLER_0_4_85
*1277 FILLER_0_4_97
*1278 FILLER_0_5_105
*1279 FILLER_0_5_111
*1280 FILLER_0_5_113
*1281 FILLER_0_5_125
*1282 FILLER_0_5_137
*1283 FILLER_0_5_149
*1284 FILLER_0_5_15
*1285 FILLER_0_5_161
*1286 FILLER_0_5_167
*1287 FILLER_0_5_169
*1288 FILLER_0_5_181
*1289 FILLER_0_5_193
*1290 FILLER_0_5_205
*1291 FILLER_0_5_217
*1292 FILLER_0_5_223
*1293 FILLER_0_5_225
*1294 FILLER_0_5_237
*1295 FILLER_0_5_249
*1296 FILLER_0_5_261
*1297 FILLER_0_5_27
*1298 FILLER_0_5_273
*1299 FILLER_0_5_279
*1300 FILLER_0_5_281
*1301 FILLER_0_5_293
*1302 FILLER_0_5_3
*1303 FILLER_0_5_305
*1304 FILLER_0_5_317
*1305 FILLER_0_5_329
*1306 FILLER_0_5_39
*1307 FILLER_0_5_51
*1308 FILLER_0_5_55
*1309 FILLER_0_5_57
*1310 FILLER_0_5_69
*1311 FILLER_0_5_81
*1312 FILLER_0_5_93
*1313 FILLER_0_6_109
*1314 FILLER_0_6_121
*1315 FILLER_0_6_133
*1316 FILLER_0_6_139
*1317 FILLER_0_6_141
*1318 FILLER_0_6_15
*1319 FILLER_0_6_153
*1320 FILLER_0_6_165
*1321 FILLER_0_6_177
*1322 FILLER_0_6_189
*1323 FILLER_0_6_195
*1324 FILLER_0_6_197
*1325 FILLER_0_6_209
*1326 FILLER_0_6_221
*1327 FILLER_0_6_233
*1328 FILLER_0_6_245
*1329 FILLER_0_6_251
*1330 FILLER_0_6_253
*1331 FILLER_0_6_265
*1332 FILLER_0_6_27
*1333 FILLER_0_6_277
*1334 FILLER_0_6_289
*1335 FILLER_0_6_29
*1336 FILLER_0_6_3
*1337 FILLER_0_6_301
*1338 FILLER_0_6_307
*1339 FILLER_0_6_309
*1340 FILLER_0_6_321
*1341 FILLER_0_6_333
*1342 FILLER_0_6_41
*1343 FILLER_0_6_53
*1344 FILLER_0_6_65
*1345 FILLER_0_6_77
*1346 FILLER_0_6_83
*1347 FILLER_0_6_85
*1348 FILLER_0_6_97
*1349 FILLER_0_7_105
*1350 FILLER_0_7_111
*1351 FILLER_0_7_113
*1352 FILLER_0_7_125
*1353 FILLER_0_7_137
*1354 FILLER_0_7_149
*1355 FILLER_0_7_15
*1356 FILLER_0_7_161
*1357 FILLER_0_7_167
*1358 FILLER_0_7_169
*1359 FILLER_0_7_181
*1360 FILLER_0_7_193
*1361 FILLER_0_7_205
*1362 FILLER_0_7_217
*1363 FILLER_0_7_223
*1364 FILLER_0_7_225
*1365 FILLER_0_7_237
*1366 FILLER_0_7_249
*1367 FILLER_0_7_261
*1368 FILLER_0_7_27
*1369 FILLER_0_7_273
*1370 FILLER_0_7_279
*1371 FILLER_0_7_281
*1372 FILLER_0_7_293
*1373 FILLER_0_7_3
*1374 FILLER_0_7_305
*1375 FILLER_0_7_317
*1376 FILLER_0_7_329
*1377 FILLER_0_7_39
*1378 FILLER_0_7_51
*1379 FILLER_0_7_55
*1380 FILLER_0_7_57
*1381 FILLER_0_7_69
*1382 FILLER_0_7_81
*1383 FILLER_0_7_93
*1384 FILLER_0_8_109
*1385 FILLER_0_8_121
*1386 FILLER_0_8_133
*1387 FILLER_0_8_139
*1388 FILLER_0_8_141
*1389 FILLER_0_8_15
*1390 FILLER_0_8_153
*1391 FILLER_0_8_165
*1392 FILLER_0_8_177
*1393 FILLER_0_8_189
*1394 FILLER_0_8_195
*1395 FILLER_0_8_197
*1396 FILLER_0_8_209
*1397 FILLER_0_8_221
*1398 FILLER_0_8_233
*1399 FILLER_0_8_245
*1400 FILLER_0_8_251
*1401 FILLER_0_8_253
*1402 FILLER_0_8_265
*1403 FILLER_0_8_27
*1404 FILLER_0_8_277
*1405 FILLER_0_8_289
*1406 FILLER_0_8_29
*1407 FILLER_0_8_3
*1408 FILLER_0_8_301
*1409 FILLER_0_8_307
*1410 FILLER_0_8_309
*1411 FILLER_0_8_321
*1412 FILLER_0_8_333
*1413 FILLER_0_8_41
*1414 FILLER_0_8_53
*1415 FILLER_0_8_65
*1416 FILLER_0_8_77
*1417 FILLER_0_8_83
*1418 FILLER_0_8_85
*1419 FILLER_0_8_97
*1420 FILLER_0_9_105
*1421 FILLER_0_9_111
*1422 FILLER_0_9_113
*1423 FILLER_0_9_125
*1424 FILLER_0_9_137
*1425 FILLER_0_9_149
*1426 FILLER_0_9_15
*1427 FILLER_0_9_161
*1428 FILLER_0_9_167
*1429 FILLER_0_9_169
*1430 FILLER_0_9_181
*1431 FILLER_0_9_193
*1432 FILLER_0_9_205
*1433 FILLER_0_9_217
*1434 FILLER_0_9_223
*1435 FILLER_0_9_225
*1436 FILLER_0_9_237
*1437 FILLER_0_9_249
*1438 FILLER_0_9_261
*1439 FILLER_0_9_27
*1440 FILLER_0_9_273
*1441 FILLER_0_9_279
*1442 FILLER_0_9_281
*1443 FILLER_0_9_293
*1444 FILLER_0_9_3
*1445 FILLER_0_9_305
*1446 FILLER_0_9_317
*1447 FILLER_0_9_329
*1448 FILLER_0_9_39
*1449 FILLER_0_9_51
*1450 FILLER_0_9_55
*1451 FILLER_0_9_57
*1452 FILLER_0_9_69
*1453 FILLER_0_9_81
*1454 FILLER_0_9_93
*1455 PHY_EDGE_ROW_0_Left_39
*1456 PHY_EDGE_ROW_0_Right_0